LTspice 24.1.6 for Windows
Circuit: C:\users\xujus\Desktop\Documents\ASU\489\newOsc\lowpowersystem1.net
Start Time: Wed Apr  2 15:51:03 2025
solver = Normal
Maximum thread count: 16
tnom = 27
temp = 27
method = trap
WARNING: Node x1:nc_01 is floating.
WARNING: Node x4:nc_01 is floating.

Warning: toxe, toxp and dtox all given and toxe != toxp + dtox; dtox ignored.
Warning: toxe, toxp and dtox all given and toxe != toxp + dtox; dtox ignored.
Warning: toxe, toxp and dtox all given and toxe != toxp + dtox; dtox ignored.
Warning: toxe, toxp and dtox all given and toxe != toxp + dtox; dtox ignored.
Direct Newton iteration failed to find .op point.  (Use ".option noopiter" to skip.)
Starting Gmin stepping
Gmin = 10
Gmin = 1.07374
Gmin = 0.115292
Gmin = 0.0123794
Gmin = 0.00132923
Gmin = 0.000142725
Gmin = 1.5325e-05
vernier = 0.5
Gmin = 2.85678e-06
vernier = 0.666667
Gmin = 7.07271e-07
vernier = 0.888888
vernier = 1
Gmin = 8.6905e-08
vernier = 0.5
vernier = 0.25
vernier = 0.125
vernier = 0.0625
vernier = 0.03125
vernier = 0.015625
vernier = 0.0078125
Gmin = 5.56192e-08
vernier = 0.00390625
vernier = 0.00195312
vernier = 0.000976562
vernier = 0.000488281
Gmin = 0
Gmin stepping failed

Starting source stepping with srcstepmethod=0
Source Step = 3.0303%
Source Step = 33.3333%
Source Step = 63.6364%
Source Step = 93.9394%
Source stepping succeeded in finding the operating point.

Total elapsed time: 337.167 seconds.

Files loaded:
C:\users\xujus\Desktop\Documents\ASU\489\newOsc\lowpowersystem1.net
C:\users\xujus\AppData\Local\LTspice\lib\cmp\standard.mos
C:\users\xujus\Desktop\Documents\ASU\489\newOsc\130nm_models.txt

